data_global
_chemical_name_common            'bct-4 carbon'
_cell_length_a                   2.459512
_cell_length_b                   2.459512
_cell_length_c                   8.72
_cell_angle_alpha                90
_cell_angle_beta                 90
_cell_angle_gamma                90
_symmetry_space_group_name_H-M   I41/amd:1
loop_
_atom_site_label
_atom_site_Wyckoff_symbol
_atom_site_fract_x
_atom_site_fract_y
_atom_site_fract_z
C 8e 0 0 .084289
