data_nolabel
_symmetry_space_group_name_H-M   I41/amd:1
_cell_angle_alpha                90
_cell_angle_beta                 90
_cell_angle_gamma                90
_cell_length_a                   3.8
_cell_length_b                   3.8
_cell_length_c                   9.5
loop_
_atom_site_type_symbol
_atom_site_Wyckoff_symbol
_atom_site_fract_x
_atom_site_fract_y
_atom_site_fract_z
Ti  4a  0  0  0
O   8e  0  0  .208
Li  4b  0  0  .5    # voids
X   8e  0  0  .104  # bonds
A   16h 0 .24 .02   # bonds
