data_1
_chemical_formula_sum            'Cd I2'
_symmetry_cell_setting           hexagonal
_symmetry_space_group_name_H-M   'P 63 m c'
_symmetry_int_tables_number      186
_cell_length_a                   4.24
_cell_length_b                   4.24
_cell_length_c                   13.67
_cell_angle_alpha                90
_cell_angle_beta                 90
_cell_angle_gamma                120
loop_
_atom_site_label
_atom_site_fract_x
_atom_site_fract_y
_atom_site_fract_z
Cd 0.33333 0.66667 0.00000
I1 0.33333 0.66667 0.37500
I2 0.00000 0.00000 0.62500
