data_nolabel
_cell_length_a     5.40669999999999
_cell_length_b     5.40669999999999
_cell_length_c     5.40669999999999
_cell_angle_alpha  90
_cell_angle_beta   90
_cell_angle_gamma  90
_symmetry_space_group_name_H-M  'Pa-3'
loop_
_atom_site_type_symbol
_atom_site_fract_x
_atom_site_fract_y
_atom_site_fract_z
  Fe     0.00000000  0.00000000  0.00000000
  S      0.38600000  0.38600000  0.38600000
