data_nolabel
_cell_length_a     4.36300000000000
_cell_length_b     4.36300000000000
_cell_length_c     4.959
_cell_angle_alpha  90
_cell_angle_beta   90
_cell_angle_gamma  120
_symmetry_space_group_name_H-M  'P3121'
loop_
_atom_site_type_symbol
_atom_site_fract_x
_atom_site_fract_y
_atom_site_fract_z
  Se     0.24860000  0.00000000  0.33333333
