data_nolabel
_cell_length_a     6.50430000000000
_cell_length_b     6.50430000000000
_cell_length_c     6.50430000000000
_cell_angle_alpha  90
_cell_angle_beta   90
_cell_angle_gamma  90
_symmetry_space_group_name_H-M  'Fd-3m'
loop_
_atom_site_type_symbol
_atom_site_fract_x
_atom_site_fract_y
_atom_site_fract_z
  Sn     0.12500000  0.12500000  0.12500000
