data_nolabel
_cell_length_a     4.59370000000000
_cell_length_b     4.59370000000000
_cell_length_c     2.9581
_cell_angle_alpha  90
_cell_angle_beta   90
_cell_angle_gamma  90
_symmetry_space_group_name_H-M  'P42/mnm'
loop_
_atom_site_type_symbol
_atom_site_fract_x
_atom_site_fract_y
_atom_site_fract_z
  Ti     0.00000000  0.00000000  0.00000000
  O      0.30530000  0.30530000  0.00000000
