# B4 as shifted graphite (ideally coordinated)
data_nolabel
_cell_length_a     4
_cell_length_b     4
_cell_length_c     4.618802
_cell_angle_alpha  90
_cell_angle_beta   90
_cell_angle_gamma  120
_symmetry_space_group_name_H-M  'P63mc'
loop_
_atom_site_type_symbol
_atom_site_fract_x
_atom_site_fract_y
_atom_site_fract_z
  C     0.333333  0.666667  0
  S     0.333333  0.666667  0.5
