# anthracene cryst optimized by PBE-D3paw900
data_nolabel
_cell_length_a                   9.23098979
_cell_length_b                   6.03894373
_cell_length_c                   8.3440183
_cell_angle_alpha                90
_cell_angle_beta                101.6348508
_cell_angle_gamma                90
_cell_formula_units_Z            2
_symmetry_space_group_name_H-M   P21/c
loop_
_symmetry_equiv_pos_as_xyz
x,y,z
-x,-y,-z
-x,y+1/2,-z+1/2
x,-y+1/2,z+1/2
loop_
_atom_site_type_symbol
_atom_site_fract_x
_atom_site_fract_y
_atom_site_fract_z
 C    -.36810759   .02564620  -.28237229
 C    -.28211568   .15516636  -.16500031
 C    -.14014165   .08147715  -.08120091
 C    -.04944005   .21066820   .03801286
 C     .08919003   .13456922   .12030270
 C     .18178468   .26362449   .24273343
 C     .31703678   .18566093   .32236241
 H    -.47625406   .08513259  -.34505560
 H    -.32039497   .31753623  -.13425681
 H    -.08798801   .37324051   .06839233
 H     .14273362   .42568056   .27261276
 H     .38558789   .28664631   .41652552
 C     .36810759  -.02564620   .28237229
 C     .28211568  -.15516636   .16500031
 C     .14014165  -.08147715   .08120091
 C     .04944005  -.21066820  -.03801286
 C    -.08919003  -.13456922  -.12030270
 C    -.18178468  -.26362449  -.24273343
 C    -.31703678  -.18566093  -.32236241
 H     .47625406  -.08513259   .34505560
 H     .32039497  -.31753623   .13425681
 H     .08798801  -.37324051  -.06839233
 H    -.14273362  -.42568056  -.27261276
 H    -.38558789  -.28664631  -.41652552
