# benzeneF6 cryst optimized by PBE-D3paw900, orbs=[[1,2],[3,4,5,6]]
data_nolabel
_cell_length_a                   5.99619283
_cell_length_b                   9.29360217
_cell_length_c                  17.05569263
_cell_angle_alpha                90
_cell_angle_beta                 93.9768579
_cell_angle_gamma                90
_cell_formula_units_Z            6
_symmetry_space_group_name_H-M   P21/n
loop_
_atom_site_type_symbol
_atom_site_fract_x
_atom_site_fract_y
_atom_site_fract_z
 C     .11786140   .04135109  -.06385413
 C    -.08384565   .10848490  -.05030966
 C    -.20167198   .06749757   .01376958
 C    -.11786140  -.04135109   .06385413
 C     .08384565  -.10848490   .05030966
 C     .20167198  -.06749757  -.01376958
 F     .23234760   .08297757  -.12521423
 F    -.16465366   .21235340  -.09934342
 F    -.39584398   .13256626   .02712129
 F    -.23234760  -.08297757   .12521423
 F     .16465366  -.21235340   .09934342
 F     .39584398  -.13256626  -.02712129
 C    -.12678990   .46365451   .10059624
 C    -.24379867   .55564802   .14761135
 C    -.15329097   .59342185   .22231311
 C     .05478717   .53952402   .24968302
 C     .17167225   .44746918   .20258164
 C     .08109518   .40942796   .12795967
 F    -.21409227   .42762542   .02843869
 F    -.44372215   .60821752   .12076782
 F    -.26735879   .68163469   .26778422
 F     .14421357   .57647740   .32140464
 F     .37306458   .39628370   .22932979
 F     .19422178   .32164579   .08205709
