# benzodithiopheneO2 cryst optimized by PBE-D3paw900
data_nolabel
_cell_length_a                   5.50581077
_cell_length_b                   5.77543648
_cell_length_c                  13.56927836
_cell_angle_alpha                90
_cell_angle_beta                 97.4071973
_cell_angle_gamma                90
_cell_formula_units_Z            2
_symmetry_space_group_name_H-M   P21/n
loop_
_symmetry_equiv_pos_as_xyz
x,y,z
-x,-y,-z
-x+1/2,y+1/2,-z+1/2
x+1/2,-y+1/2,z+1/2
loop_
_atom_site_type_symbol
_atom_site_fract_x
_atom_site_fract_y
_atom_site_fract_z
 C    -.12624310  -.19789831  -.04628347
 C    -.21189265  -.10223022   .04395963
 C    -.07285555   .09887030   .08499478
 C     .07285555  -.09887030  -.08499478
 C     .21189265   .10223022  -.04395963
 C     .12624310   .19789831   .04628347
 C    -.22428192  -.39073395  -.10271634
 C    -.09887357  -.43173735  -.18277632
 S     .13608045  -.24078165  -.18945230
 S    -.13608045   .24078165   .18945230
 C     .09887357   .43173735   .18277632
 C     .22428192   .39073395   .10271634
 H    -.13229453  -.56724412  -.23834921
 H    -.37706053  -.49618557  -.08522213
 O    -.38591530  -.18507157   .08225808
 O     .38591530   .18507157  -.08225808
 H     .37706053   .49618557   .08522213
 H     .13229453   .56724412   .23834921
