# BODIPY cryst optimized by PBE-D3paw900
data_nolabel
_cell_length_a                  10.06744981
_cell_length_b                   9.96139017
_cell_length_c                  17.03730851
_cell_angle_alpha                90
_cell_angle_beta                101.9569133
_cell_angle_gamma                90
_cell_formula_units_Z            8
_symmetry_space_group_name_H-M   C2/c
loop_
_symmetry_equiv_pos_as_xyz
x,y,z
-x,1-y,-z
1-x,y,-z+1/2
1+x,1-y,z+1/2
x+1/2,y+1/2,z
-x+1/2,-y+3/2,-z
-x+1/2,y+1/2,-z+1/2
x+1/2,-y+3/2,z+1/2
loop_
_atom_site_type_symbol
_atom_site_fract_x
_atom_site_fract_y
_atom_site_fract_z
 C    -.17542752   .34412818  -.21888195
 C    -.28928284   .42750008  -.24489002
 C    -.33040024   .47302184  -.17640135
 C    -.23968538   .41770024  -.10946149
 C    -.23089824   .43576198  -.02754635
 C    -.12567183   .37975273   .02870594
 C    -.09125703   .39090579   .11353809
 C     .02912954   .32061741   .13935089
 C     .06650993   .26690101   .07039701
 N    -.02602193   .30165218   .00418871
 N    -.14514932   .33850547  -.13782502
 B    -.03013026   .25730998  -.08353402
 F    -.05802436   .11749214  -.09187334
 F     .09597406   .28170216  -.10514042
 H    -.11699829   .28932459  -.25518926
 H    -.33570287   .45081108  -.30664865
 H    -.41383150   .53930576  -.17187192
 H    -.30758164   .49611199  -.00746317
 H    -.14922494   .44634885   .14972269
 H     .08585974   .30856286   .20029217
 H     .15568978   .20834292   .06606412
