# chrysene cryst optimized by PBE-D3paw900
data_nolabel
_cell_length_a                  22.68381404
_cell_length_b                   6.18609543
_cell_length_c                   8.14516582
_cell_angle_alpha                90
_cell_angle_beta                 97.8384253
_cell_angle_gamma                90
_cell_formula_units_Z            4
_symmetry_space_group_name_H-M   C12/n1
loop_
_symmetry_equiv_pos_as_xyz
x,y,z
-x,-y,-z
-x,y+1/2,-z+1/2
x,-y+1/2,z+1/2
x+1/2,y+1/2,z
-x+1/2,-y+1/2,-z
-x+1/2,y,-z+1/2
x+1/2,-y,z+1/2
loop_
_atom_site_type_symbol
_atom_site_fract_x
_atom_site_fract_y
_atom_site_fract_z
 C     .01298810  -.08749847  -.03880407
 C     .07570660  -.08213159  -.05587959
 C     .10431277  -.24842106  -.13478683
 C     .16418603  -.23617060  -.15055168
 C     .19845328  -.05740881  -.08689167
 C     .17192465   .10740965  -.00918004
 C     .11064835   .09952180   .00717217
 C     .08312051   .27062084   .08540508
 C     .02380505   .26482397   .10005230
 C    -.01298810   .08749847   .03880407
 C    -.07570660   .08213159   .05587959
 C    -.10431277   .24842106   .13478683
 C    -.16418603   .23617060   .15055168
 C    -.19845328   .05740881   .08689167
 C    -.17192465  -.10740965   .00918004
 C    -.11064835  -.09952180  -.00717217
 C    -.08312051  -.27062084  -.08540508
 C    -.02380505  -.26482397  -.10005230
 H     .07933182  -.38916169  -.18503728
 H     .18469932  -.36555391  -.21382759
 H     .24570878  -.05128823  -.09844075
 H     .19762034   .24703609   .04128940
 H     .11016372   .40818338   .13333928
 H     .00457060   .39925166   .16023626
 H    -.07933182   .38916169   .18503728
 H    -.18469932   .36555391   .21382759
 H    -.24570878   .05128823   .09844075
 H    -.19762034  -.24703609  -.04128940
 H    -.11016372  -.40818338  -.13333928
 H    -.00457060  -.39925166  -.16023626
