# coronene cryst optimized by PBE-D3paw900
data_nolabel
_cell_length_a      9.99852898
_cell_length_b      4.65249517
_cell_length_c     15.47879701
_cell_angle_alpha   90
_cell_angle_beta   106.76812784
_cell_angle_gamma   90
_cell_formula_units_Z  2
_symmetry_space_group_name_H-M  P21/n
loop_
_symmetry_equiv_pos_as_xyz
x,y,z
-x,-y,-z
-x+1/2,y+1/2,-z+1/2
x+1/2,-y+1/2,z+1/2
loop_
_atom_site_type_symbol
_atom_site_fract_x
_atom_site_fract_y
_atom_site_fract_z
  C     .13459325   .08155222  -.00579192
  C     .08011120   .20740673   .06092910
  C    -.05422049   .12530992   .06693484
  C    -.13459325  -.08155222   .00579192
  C    -.08011120  -.20740673  -.06092910
  C     .05422049  -.12530992  -.06693484
  C     .26914133   .16260227  -.01130766
  C     .15971260   .41612591   .12145709
  C    -.10796709   .24949597   .13410307
  C    -.26914133  -.16260227   .01130766
  C    -.15971260  -.41612591  -.12145709
  C     .10796709  -.24949597  -.13410307
  C     .31995278   .03652262  -.07943301
  C     .34739983   .36755627   .05131513
  C     .29430810   .49194437   .11494012
  C     .10289546   .53877113   .18726492
  C    -.02591808   .45689597   .19378572
  C    -.24208095   .16258185   .13867149
  C    -.31995278  -.03652262   .07943301
  C    -.34739983  -.36755627  -.05131513
  C    -.29430810  -.49194437  -.11494012
  C    -.10289546  -.53877113  -.18726492
  C     .02591808  -.45689597  -.19378572
  C     .24208095  -.16258185  -.13867149
  H     .42296651   .09957427  -.08372610
  H     .45139608   .42563909   .04801889
  H     .35497564   .65101118   .16197326
  H     .16397153   .69914234   .23321937
  H    -.06732519   .55370103   .24488473
  H    -.28263267   .26070931   .19005887
  H    -.42296651  -.09957427   .08372610
  H    -.45139608  -.42563909  -.04801889
  H    -.35497564  -.65101118  -.16197326
  H    -.16397153  -.69914234  -.23321937
  H     .06732519  -.55370103  -.24488473
  H     .28263267  -.26070931  -.19005887
