# naphthalene cryst optimized by PBE-D3paw900
data_nolabel
_cell_length_a                   7.82984616
_cell_length_b                   5.94242248
_cell_length_c                   8.10003389
_cell_angle_alpha                90
_cell_angle_beta                114.2010812
_cell_angle_gamma                90
_cell_formula_units_Z            2
_symmetry_space_group_name_H-M   P21/c
loop_
_symmetry_equiv_pos_as_xyz
x,y,z
-x,-y,-z
-x,y+1/2,-z+1/2
x,-y+1/2,z+1/2
loop_
_atom_site_type_symbol
_atom_site_fract_x
_atom_site_fract_y
_atom_site_fract_z
 C    -.32882480   .01900035  -.24639384
 C    -.22275422   .16380409  -.10973220
 C    -.03758013   .10628841   .01091440
 C     .07523986   .25202863   .15223993
 C     .25453333   .19068160   .26804067
 H    -.47041888   .06709480  -.33830680
 H    -.27870663   .32583776  -.09272996
 H     .01728832   .41307407   .16827135
 H     .33864080   .30405960   .37691149
 C     .32882480  -.01900035   .24639384
 C     .22275422  -.16380409   .10973220
 C     .03758013  -.10628841  -.01091440
 C    -.07523986  -.25202863  -.15223993
 C    -.25453333  -.19068160  -.26804067
 H     .47041888  -.06709480   .33830680
 H     .27870663  -.32583776   .09272996
 H    -.01728832  -.41307407  -.16827135
 H    -.33864080  -.30405960  -.37691149
