# NDI cryst optimized by PBE-D3paw900, orbs=[[1],[2]]
data_nolabel
_cell_length_a                   7.62655257
_cell_length_b                   8.19536171
_cell_length_c                   9.00481058
_cell_angle_alpha                89.6238189
_cell_angle_beta                 71.5466816
_cell_angle_gamma                79.572637
_cell_formula_units_Z            2
_symmetry_space_group_name_H-M   P-1
loop_
_atom_site_type_symbol
_atom_site_fract_x
_atom_site_fract_y
_atom_site_fract_z
 N    -.38515402   .27684184  -.04382537
 C    -.35470003   .11571772  -.10656462
 C    -.27839910   .33971760   .03207434
 C    -.19541926  -.00234188  -.08333174
 C    -.11358942   .22386375   .04726093
 C    -.15855708  -.16755813  -.13644161
 C    -.07863210   .05596467  -.00879420
 C     .00494427   .27849308   .11717790
 C    -.00494427  -.27849308  -.11717790
 C     .07863210  -.05596467   .00879420
 C     .15855708   .16755813   .13644161
 C     .11358942  -.22386375  -.04726093
 C     .19541926   .00234188   .08333174
 C     .27839910  -.33971760  -.03207434
 C     .35470003  -.11571772   .10656462
 N     .38515402  -.27684184   .04382537
 O    -.45673197   .07817671  -.17840187
 O    -.32048984   .48701539   .08335010
 O     .32048984  -.48701539  -.08335010
 O     .45673197  -.07817671   .17840187
 H    -.24809250  -.21107264  -.19465429
 H    -.02262881   .40756497   .15934979
 H     .02262881  -.40756497  -.15934979
 H     .24809250   .21107264   .19465429
 H    -.49802051   .36089647  -.05908737
 H     .49802051  -.36089647   .05908737
 N    -.29218062   .39075687   .54901907
 C    -.33703818   .26705723   .47275219
 C    -.14354477   .37688956   .60870361
 C    -.21589186   .10116784   .45421804
 C    -.01744804   .21270080   .58418537
 C    -.25479488  -.03127140   .38260619
 C    -.05909153   .07953090   .50971515
 C     .13807051   .18830598   .63614242
 C    -.13807051  -.18830598   .36385758
 C     .05909153  -.07953090   .49028485
 C     .25479488   .03127140   .61739381
 C     .01744804  -.21270080   .41581463
 C     .21589186  -.10116784   .54578196
 C     .14354477  -.37688956   .39129639
 C     .33703818  -.26705723   .52724781
 N     .29218062  -.39075687   .45098093
 O    -.47332443   .29628353   .42269630
 O    -.12347161   .49713489   .67935518
 O     .12347161  -.49713489   .32064482
 O     .47332443  -.29628353   .57730370
 H    -.37511212  -.01200975   .33975918
 H     .16780484   .29214446   .69297765
 H    -.16780484  -.29214446   .30702235
 H     .37511212   .01200975   .66024082
 H    -.37960125   .50754778   .56400265
 H     .37960125  -.50754778   .43599735
