# oligothiophene4 cryst optimized by PBE-D3paw900, SG=P21/a, nm=2
data_nolabel
_cell_length_a     8.83383865
_cell_length_b     5.68377402
_cell_length_c     14.26931439
_cell_angle_alpha  90.00000000
_cell_angle_beta   98.53277430
_cell_angle_gamma  90.00000000
_cell_formula_units_Z  2
_symmetry_space_group_name_H-M  'P21/a'
loop_
_symmetry_equiv_pos_as_xyz
'x,y,z'
'-x+1/2,y+1/2,-z'
'-x,-y,-z'
'x+1/2,-y+1/2,z'
loop_
_atom_site_type_symbol
_atom_site_fract_x
_atom_site_fract_y
_atom_site_fract_z
  S     .14001507  -.15660123  -.09888841
  C     .02328301   .03048256  -.04448898
  C    -.01174076   .23090485  -.09905237
  C     .05369608   .23222660  -.18321765
  C     .13966554   .03262815  -.19466694
  H    -.08335655   .37169203  -.07821982
  H     .03856247   .37497638  -.23462833
  S     .21729453   .16728691  -.36698463
  C     .22103757  -.02465545  -.27177159
  C     .30992587  -.22018178  -.28442911
  C     .37435696  -.21185501  -.36972933
  C     .33390252  -.01158579  -.42173520
  H     .32836450  -.36409980  -.23364734
  H     .44783594  -.34838665  -.39186242
  H     .36495915   .04179547  -.48936028
  S    -.14001507   .15660123   .09888841
  C    -.02328301  -.03048256   .04448898
  C     .01174076  -.23090485   .09905237
  C    -.05369608  -.23222660   .18321765
  C    -.13966554  -.03262815   .19466694
  H     .08335655  -.37169203   .07821982
  H    -.03856247  -.37497638   .23462833
  S    -.21729453  -.16728691   .36698463
  C    -.22103757   .02465545   .27177159
  C    -.30992587   .22018178   .28442911
  C    -.37435696   .21185501   .36972933
  C    -.33390252   .01158579   .42173520
  H    -.32836450   .36409980   .23364734
  H    -.44783594   .34838665   .39186242
  H    -.36495915  -.04179547   .48936028
  S     .35998493   .34339877   .09888841
  C     .47671699   .53048256   .04448898
  C     .51174076   .73090485   .09905237
  C     .44630392   .73222660   .18321765
  C     .36033446   .53262815   .19466694
  H     .58335655   .87169203   .07821982
  H     .46143753   .87497638   .23462833
  S     .28270547   .66728691   .36698463
  C     .27896243   .47534455   .27177159
  C     .19007413   .27981822   .28442911
  C     .12564304   .28814499   .36972933
  C     .16609748   .48841421   .42173520
  H     .17163550   .13590020   .23364734
  H     .05216406   .15161335   .39186242
  H     .13504085   .54179547   .48936028
  S     .64001507   .65660123  -.09888841
  C     .52328301   .46951744  -.04448898
  C     .48825924   .26909515  -.09905237
  C     .55369608   .26777340  -.18321765
  C     .63966554   .46737185  -.19466694
  H     .41664345   .12830797  -.07821982
  H     .53856247   .12502362  -.23462833
  S     .71729453   .33271309  -.36698463
  C     .72103757   .52465545  -.27177159
  C     .80992587   .72018178  -.28442911
  C     .87435696   .71185501  -.36972933
  C     .83390252   .51158579  -.42173520
  H     .82836450   .86409980  -.23364734
  H     .94783594   .84838665  -.39186242
  H     .86495915   .45820453  -.48936028
