# oligothiophene6 cryst optimized by PBE-D3paw900
data_nolabel
_cell_length_a                   8.96356419
_cell_length_b                   5.6407287
_cell_length_c                  20.51719824
_cell_angle_alpha                90
_cell_angle_beta                 96.3959563
_cell_angle_gamma                90
_cell_formula_units_Z            2
_symmetry_space_group_name_H-M   P21/a
loop_
_symmetry_equiv_pos_as_xyz
x,y,z
-x,-y,-z
-x+1/2,y+1/2,-z
x+1/2,-y+1/2,z
loop_
_atom_site_type_symbol
_atom_site_fract_x
_atom_site_fract_y
_atom_site_fract_z
 S     .65981117   .16789979   .40921133
 C     .79862857  -.01171651   .44631551
 C     .81536189  -.21426215   .41038442
 C     .71455023  -.22352425   .35198725
 C     .62176620  -.02624788   .34362543
 H     .85895442   .04278076   .49267966
 H     .89704406  -.35194339   .42537654
 H     .71015272  -.36937509   .31707220
 S     .46574678  -.16056031   .22507480
 C     .50811267   .03121931   .29090844
 C     .41885421   .23281605   .28341781
 C     .31716229   .23055393   .22596329
 C     .32679864   .02731157   .18837230
 H     .42697567   .37753849   .31874949
 H     .23799635   .37286267   .21199681
 S     .10252033   .15727173   .09198171
 C     .24037467  -.03428585   .12772858
 C     .24737825  -.23697819   .08963709
 C     .14443179  -.23602574   .03256095
 C     .05688073  -.03208002   .02581612
 H     .32554001  -.38112047   .10300375
 H     .13429667  -.37981612  -.00308785
 S    -.65981117  -.16789979  -.40921133
 C    -.79862857   .01171651  -.44631551
 C    -.81536189   .21426215  -.41038442
 C    -.71455023   .22352425  -.35198725
 C    -.62176620   .02624788  -.34362543
 H    -.85895442  -.04278076  -.49267966
 H    -.89704406   .35194339  -.42537654
 H    -.71015272   .36937509  -.31707220
 S    -.46574678   .16056031  -.22507480
 C    -.50811267  -.03121931  -.29090844
 C    -.41885421  -.23281605  -.28341781
 C    -.31716229  -.23055393  -.22596329
 C    -.32679864  -.02731157  -.18837230
 H    -.42697567  -.37753849  -.31874949
 H    -.23799635  -.37286267  -.21199681
 S    -.10252033  -.15727173  -.09198171
 C    -.24037467   .03428585  -.12772858
 C    -.24737825   .23697819  -.08963709
 C    -.14443179   .23602574  -.03256095
 C    -.05688073   .03208002  -.02581612
 H    -.32554001   .38112047  -.10300375
 H    -.13429667   .37981612   .00308785
