# OPV3CN cryst optimized by PBE-D3paw900
data_nolabel
_cell_length_a                   6.78489189
_cell_length_b                   7.11735509
_cell_length_c                  35.27079729
_cell_angle_alpha                90
_cell_angle_beta                 90
_cell_angle_gamma                90
_cell_formula_units_Z            4
_symmetry_space_group_name_H-M   Pbca
loop_
_symmetry_equiv_pos_as_xyz
x,y,z
-x,-y,-z
x+1/2,-y+1/2,-z
-x+1/2,y+1/2,z
-x+1/2,-y,z+1/2
x+1/2,y,-z+1/2
-x,y+1/2,-z+1/2
x,-y+1/2,z+1/2
loop_
_atom_site_type_symbol
_atom_site_fract_x
_atom_site_fract_y
_atom_site_fract_z
 C    -.00763947   .31000509   .21939508
 C    -.14762696   .18685260   .20422403
 C    -.13785267   .13241489   .16633532
 C     .01558064   .19899053   .14296684
 C     .15936480   .31793570   .15902431
 C     .14582185   .37619295   .19656713
 H    -.26567122   .13226771   .22202133
 H    -.24666575   .03439463   .15523683
 H     .28123263   .36510737   .14135006
 H     .25547724   .47297468   .20790696
 C     .04039018   .14936852   .10330754
 H     .19255177   .15626047   .09326113
 C    -.09873340   .10288250   .07698123
 C    -.30335383   .11348616   .08569091
 N    -.47271504   .12456576   .09128322
 C    -.04856753   .04935313   .03771950
 C    -.18543818   .07330058   .00813405
 C    -.13746026   .02626555  -.02892894
 C     .04856753  -.04935313  -.03771950
 C     .18543818  -.07330058  -.00813405
 C     .13746026  -.02626555   .02892894
 H    -.32996332   .13333763   .01417488
 H    -.24510825   .05037704  -.05130673
 H     .32996332  -.13333763  -.01417488
 H     .24510825  -.05037704   .05130673
 C     .09873340  -.10288250  -.07698123
 C     .30335383  -.11348616  -.08569091
 N     .47271504  -.12456576  -.09128322
 C    -.04039018  -.14936852  -.10330754
 H    -.19255177  -.15626047  -.09326113
 C    -.01558064  -.19899053  -.14296684
 C    -.15936480  -.31793570  -.15902431
 C    -.14582185  -.37619295  -.19656713
 C     .00763947  -.31000509  -.21939508
 C     .14762696  -.18685260  -.20422403
 C     .13785267  -.13241489  -.16633532
 H    -.28123263  -.36510737  -.14135006
 H    -.25547724  -.47297468  -.20790696
 H     .26567122  -.13226771  -.22202133
 H     .24666575  -.03439463  -.15523683
 H    -.01723616   .35297259   .24900116
 H     .01723616  -.35297259  -.24900116
