# pentaceneN2Cl4 cryst optimized by PBE-D3paw900
data_nolabel
_cell_length_a      3.90663604
_cell_length_b     12.25168255
_cell_length_c     17.07509907
_cell_angle_alpha   90
_cell_angle_beta    94.83140814
_cell_angle_gamma   90
_cell_formula_units_Z  2
_symmetry_space_group_name_H-M  P21/n
loop_
_symmetry_equiv_pos_as_xyz
x,y,z
-x,-y,-z
-x+1/2,y+1/2,-z+1/2
x+1/2,-y+1/2,z+1/2
loop_
_atom_site_type_symbol
_atom_site_fract_x
_atom_site_fract_y
_atom_site_fract_z
  N    -.06183047   .03281922   .07690839
  C    -.17328496   .09355781   .01466968
  C    -.35308961   .19249423   .02528194
  C    -.47025217   .25769894  -.03898325
  C    -.64744535   .35822269  -.02976378
  C    -.76201453   .42016561  -.09344618
  C    -.70734780   .38546731  -.17088287
  C    -.53362364   .29061503  -.18255922
  C    -.40980604   .22305676  -.11826611
  C    -.23374073   .12540079  -.12931518
  C    -.11027775   .05939842  -.06479166
  N     .06183047  -.03281922  -.07690839
  C     .17328496  -.09355781  -.01466968
  C     .35308961  -.19249423  -.02528194
  C     .47025217  -.25769894   .03898325
  C     .64744535  -.35822269   .02976378
  C     .76201453  -.42016561   .09344618
  C     .70734780  -.38546731   .17088287
  C     .53362364  -.29061503   .18255922
  C     .40980604  -.22305676   .11826611
  C     .23374073  -.12540079   .12931518
  C     .11027775  -.05939842   .06479166
  Cl   -.42217198   .23146887   .11942168
  H    -.68977801   .38431829   .02953272
  H    -.89772713   .49642906  -.08499700
  H    -.80399456   .43442385  -.22116916
  H    -.48758286   .26495223  -.24170267
  Cl   -.16108430   .08225916  -.22221574
  Cl    .42217198  -.23146887  -.11942168
  H     .68977801  -.38431829  -.02953272
  H     .89772713  -.49642906   .08499700
  H     .80399456  -.43442385   .22116916
  H     .48758286  -.26495223   .24170267
  Cl    .16108430  -.08225916   .22221574
