# PTCDA cryst optimized by PBE-D3paw900
data_nolabel
_cell_length_a                   3.72774308
_cell_length_b                  19.18979022
_cell_length_c                  10.77628627
_cell_angle_alpha                90
_cell_angle_beta                 95.987708
_cell_angle_gamma                90
_cell_formula_units_Z            2
_symmetry_space_group_name_H-M   P21/c
loop_
_symmetry_equiv_pos_as_xyz
x,y,z
-x,-y,-z
-x,y+1/2,-z+1/2
x,-y+1/2,z+1/2
loop_
_atom_site_type_symbol
_atom_site_fract_x
_atom_site_fract_y
_atom_site_fract_z
 O     .55584317  -.19028283   .37395603
 C     .35508390  -.21721851   .26816169
 C     .63288867  -.11938289   .39415867
 C     .21252397  -.16768904   .17272835
 C     .47666172  -.07031161   .29958890
 C     .01955228  -.19225132   .06407736
 C     .27506754  -.09532869   .18977659
 C     .53396559   .00091208   .31600772
 C    -.11287148  -.14584435  -.02906890
 C     .13751751  -.04756149   .09492672
 C     .39506427   .04793161   .22460218
 C    -.05899532  -.07394492  -.01622558
 C     .19998628   .02529093   .11367358
 O    -.55584317   .19028283  -.37395603
 C    -.35508390   .21721851  -.26816169
 C    -.63288867   .11938289  -.39415867
 C    -.21252397   .16768904  -.17272835
 C    -.47666172   .07031161  -.29958890
 C    -.01955228   .19225132  -.06407736
 C    -.27506754   .09532869  -.18977659
 C    -.53396559  -.00091208  -.31600772
 C     .11287148   .14584435   .02906890
 C    -.13751751   .04756149  -.09492672
 C    -.39506427  -.04793161  -.22460218
 C     .05899532   .07394492   .01622558
 C    -.19998628  -.02529093  -.11367358
 O     .31631146  -.28027652   .26307900
 O     .83021342  -.10495099   .48788257
 O    -.31631146   .28027652  -.26307900
 O    -.83021342   .10495099  -.48788257
 H    -.02644886  -.24804558   .05237243
 H    -.26478169  -.16706006  -.11202774
 H     .69174003   .01987893   .39993469
 H     .44532178   .10312502   .24150421
 H     .02644886   .24804558  -.05237243
 H     .26478169   .16706006   .11202774
 H    -.69174003  -.01987893  -.39993469
 H    -.44532178  -.10312502  -.24150421
