# spirobifluorene cryst optimized by PBE-D3paw900
data_nolabel
_cell_length_a                  10.09044201
_cell_length_b                  10.09659071
_cell_length_c                  16.43296685
_cell_angle_alpha                90
_cell_angle_beta                 96.7501884
_cell_angle_gamma                90
_cell_formula_units_Z            4
_symmetry_space_group_name_H-M   P21/c
loop_
_symmetry_equiv_pos_as_xyz
x,y,z
1-x,y+1/2,-z+1/2
1-x,1-y,1-z
x,-y+1/2,z+1/2
loop_
_atom_site_type_symbol
_atom_site_fract_x
_atom_site_fract_y
_atom_site_fract_z
 C     .32831593   .28579971   .14366906
 C     .55105470   .38405069   .21805813
 C     .68693649   .36105878   .24212279
 C     .74690238   .24253337   .22169029
 C     .67247678   .14400482   .17753696
 C     .53655843   .16597114   .15446087
 C     .47678741   .28612110   .17446278
 H     .50433533   .47643683   .23383086
 H     .74618882   .43603953   .27754524
 H     .85279731   .22694370   .24085669
 H     .71953991   .05163304   .16213210
 C     .19571440   .09035255   .06554201
 C     .20426353  -.03740101   .03339510
 C     .32593166  -.10546582   .04085547
 C     .44165478  -.04689728   .07966775
 C     .43391654   .08089440   .11124602
 C     .31083684   .14837065   .10468564
 H     .10083851   .14350861   .06008649
 H     .11532836  -.08465483   .00207554
 H     .32992923  -.20513238   .01605439
 H     .53639565  -.09990874   .08521997
 C     .33390290   .42445220   .00912878
 C     .27492608   .52766852  -.03921758
 C     .16815794   .59937242  -.01416812
 C     .11922237   .57108862   .05993028
 C     .17715918   .46768016   .10813392
 C     .28408849   .39496775   .08228010
 H     .41756846   .36890449  -.01023679
 H     .31232962   .55306570  -.09672683
 H     .12288062   .67791280  -.05367237
 H     .03631735   .62741258   .07924630
 C     .23857265   .24785868   .28558574
 C     .14701724   .28897949   .33822651
 C     .05495237   .38973677   .31465944
 C     .05418755   .45322132   .23899429
 C     .14794010   .41496856   .18725267
 C     .23794496   .31077695   .21031588
 H     .30980872   .16902068   .30396519
 H     .14893836   .24266782   .39830128
 H    -.01665846   .41943244   .35598700
 H    -.01712761   .53235227   .22140939
