# triazine cryst optimized by PBE-D3paw900
data_nolabel
_cell_length_a      6.67248022
_cell_length_b      9.49957726
_cell_length_c      7.04104713
_cell_angle_alpha   90
_cell_angle_beta   125.23780540
_cell_angle_gamma   90
_cell_formula_units_Z  4
_symmetry_space_group_name_H-M   C2/c
loop_
_symmetry_equiv_pos_as_xyz
x,y,z
-x,y,-z+1/2
-x,-y,1-z
x,-y,z+1/2
x+1/2,y+1/2,z
-x+1/2,y+1/2,-z+1/2
-x+1/2,-y+1/2,1-z
x+1/2,-y+1/2,z+1/2
loop_
_atom_site_type_symbol
_atom_site_fract_x
_atom_site_fract_y
_atom_site_fract_z
  N     .21039382  -.07199794   .41116924
  C     .19989574   .06904623   .40169230
  N     .00000000   .14534527   .25000000
  C    -.19989574   .06904623   .09830770
  N    -.21039382  -.07199794   .08883076
  C     .00000000  -.13707438   .25000000
  H     .36754588   .12681933   .52760391
  H    -.36754588   .12681933  -.02760391
  H     .00000000  -.25215950   .25000000
