# triphenyltriazine cryst optimized by PBE-D3paw900
data_nolabel
_cell_length_a                  10.88184027
_cell_length_b                   3.80139471
_cell_length_c                  35.69540106
_cell_angle_alpha                90
_cell_angle_beta                 90.9065202
_cell_angle_gamma                90
_cell_formula_units_Z            4
_symmetry_space_group_name_H-M   P21/c
loop_
_symmetry_equiv_pos_as_xyz
x,y,z
1-x,y-1/2,-z+1/2
x,-y+1/2,z+1/2
1-x,1-y,1-z
loop_
_atom_site_type_symbol
_atom_site_fract_x
_atom_site_fract_y
_atom_site_fract_z
 N     .51548354   .47226645   .09386962
 C     .57224560   .59785255   .12483623
 N     .51483878   .67448364   .15695701
 C     .39304502   .61031377   .15705542
 N     .32862775   .48198130   .12757521
 C     .39366395   .41949700   .09652630
 C     .70684946   .64630253   .12354730
 C     .77147087   .80018750   .15369492
 C     .89888064   .83104723   .15271167
 C     .96323854   .71130302   .12165179
 C     .89914479   .56267467   .09136398
 C     .77192924   .52966771   .09226347
 H     .72049312   .89437859   .17768618
 H     .94885585   .94980496   .17619792
 H    1.06313901   .73216049   .12106952
 H     .94926002   .46839550   .06715566
 H     .72099573   .40948160   .06913102
 C     .32602241   .67954165   .19194779
 C     .20232748   .58000976   .19493307
 C     .13989770   .63873623   .22806174
 C     .20039820   .79368528   .25866199
 C     .32360558   .89168418   .25603517
 C     .38576592   .83803479   .22274111
 H     .15723585   .45199823   .17117251
 H     .04393562   .56061622   .23021960
 H     .15206362   .83978152   .28472383
 H     .37103821  1.01021104   .28004631
 H     .48115661   .91897417   .22018324
 C     .32762940   .28236049   .06315810
 C     .38723266   .26252764   .02866811
 C     .32536704   .13673499  -.00300115
 C     .20366453   .02409870  -.00037311
 C     .14405001   .03941216   .03395082
 C     .20520809   .17043249   .06553133
 H     .48226635   .34889791   .02723326
 H     .37205402   .12665448  -.02978878
 H     .15567731  -.07714239  -.02512971
 H     .04977862  -.05396011   .03613150
 H     .15994742   .18557233   .09243730
