# triphenylene cryst optimized by PBE-D3paw900
data_nolabel
_cell_length_a                   5.22166095
_cell_length_b                  12.86826615
_cell_length_c                  16.52639365
_cell_angle_alpha                90
_cell_angle_beta                 90
_cell_angle_gamma                90
_cell_formula_units_Z            4
_symmetry_space_group_name_H-M   P212121
loop_
_symmetry_equiv_pos_as_xyz
x,y,z
-x+1/2,-y,z+1/2
-x,y+1/2,-z+1/2
x+1/2,-y+1/2,-z
loop_
_atom_site_type_symbol
_atom_site_fract_x
_atom_site_fract_y
_atom_site_fract_z
 C     .20857353  -.03903607  -.07877616
 C     .22181261   .03520416  -.14245839
 C     .04329087   .12251876  -.14416853
 C    -.14148568   .13416952  -.08158833
 C    -.15477647   .05807146  -.01618946
 C     .01607731  -.02795163  -.01532040
 C     .38550382  -.12200995  -.07847997
 C     .57071509  -.13205093  -.13781854
 C     .58352519  -.05918603  -.20061854
 C     .41089995   .02229508  -.20271518
 C     .04597967   .19591307  -.20772550
 C    -.12746332   .27722317  -.21094293
 C    -.30941883   .28868140  -.14919020
 C    -.31436937   .21845962  -.08576120
 C    -.34016958   .06595656   .04568395
 C    -.36328819  -.00883212   .10546045
 C    -.19679758  -.09431547   .10592637
 C    -.00927344  -.10231363   .04694466
 H     .38098801  -.17885289  -.02985684
 H     .70817854  -.19574424  -.13517670
 H     .72840438  -.06617104  -.24765058
 H     .42701743   .07819286  -.25177126
 H     .18680268   .18874777  -.25592113
 H    -.12350481   .33197122  -.26126425
 H    -.44630966   .35249866  -.15059447
 H    -.45810332   .22890858  -.03884670
 H    -.47257190   .13111627   .04671003
 H    -.51224898  -.00124007   .15132799
 H    -.21485122  -.15427013   .15220068
 H     .11958364  -.16867533   .04859293
