# TTPa cryst optimized by PBE-D3paw900
data_nolabel
_cell_length_a                  11.21088889
_cell_length_b                   5.00801305
_cell_length_c                  14.14296371
_cell_angle_alpha                90
_cell_angle_beta                 91.4396633
_cell_angle_gamma                90
_cell_formula_units_Z            2
_symmetry_space_group_name_H-M   P21/n
loop_
_symmetry_equiv_pos_as_xyz
x,y,z
-x,-y,-z
-x+1/2,y+1/2,-z+1/2
x+1/2,-y+1/2,z+1/2
loop_
_atom_site_type_symbol
_atom_site_fract_x
_atom_site_fract_y
_atom_site_fract_z
 N    -.10139930  -.01923133   .05784018
 N     .10139930   .01923133  -.05784018
 C    -.01340441   .15539761   .07759956
 C     .08996737   .17486990   .01856115
 C    -.08996737  -.17486990  -.01856115
 C     .01340441  -.15539761  -.07759956
 C    -.01988152   .32889506   .15726706
 C     .17947080   .36648682   .04385091
 C    -.17947080  -.36648682  -.04385091
 C     .01988152  -.32889506  -.15726706
 C     .06740780   .52217911   .17959398
 C     .17019109   .54060408   .12138100
 C    -.17019109  -.54060408  -.12138100
 C    -.06740780  -.52217911  -.17959398
 C     .03766807   .67372674   .26109925
 C     .27041479   .71515534   .12997424
 C    -.27041479  -.71515534  -.12997424
 C    -.03766807  -.67372674  -.26109925
 C    -.06841987   .59245199   .29813600
 C     .35219589   .67043202   .06117284
 C    -.35219589  -.67043202  -.06117284
 C     .06841987  -.59245199  -.29813600
 S    -.13455333   .33501026   .23597744
 S     .30998451   .41872460  -.01572406
 S    -.30998451  -.41872460   .01572406
 S     .13455333  -.33501026  -.23597744
 H     .09125607   .83615193   .29056366
 H     .28175360   .86733646   .18415647
 H    -.28175360  -.86733646  -.18415647
 H    -.09125607  -.83615193  -.29056366
 H    -.11389487   .67439866   .35849952
 H     .43625011   .77412733   .05205171
 H    -.43625011  -.77412733  -.05205171
 H     .11389487  -.67439866  -.35849952
