# TTPb cryst optimized by PBE-D3paw900, orbs=[[1,2],[3,4]]
data_nolabel
_cell_length_a                  17.02065015
_cell_length_b                   3.86994371
_cell_length_c                  25.77207521
_cell_angle_alpha                90
_cell_angle_beta                108.6827243
_cell_angle_gamma                90
_cell_formula_units_Z            4
_symmetry_space_group_name_H-M   P21/a
loop_
_atom_site_type_symbol
_atom_site_fract_x
_atom_site_fract_y
_atom_site_fract_z
 N    -.07801105   .16036691  -.02424681
 N     .07801105  -.16036691   .02424681
 C    -.03015109   .06896054  -.05444253
 C     .04914517  -.09490989  -.02974057
 C    -.04914517   .09490989   .02974057
 C     .03015109  -.06896054   .05444253
 C    -.05820119   .13480065  -.11243863
 C     .09830852  -.18841835  -.06361172
 C    -.09830852   .18841835   .06361172
 C     .05820119  -.13480065   .11243863
 C    -.00862482   .03853116  -.14457827
 C     .06972995  -.11929396  -.12018902
 C    -.06972995   .11929396   .12018902
 C     .00862482  -.03853116   .14457827
 C    -.13401900   .29340761  -.14449664
 C     .17790388  -.34786964  -.04667696
 C    -.17790388   .34786964   .04667696
 C     .13401900  -.29340761   .14449664
 C    -.14155069   .30942141  -.19886103
 C     .20928246  -.39241357  -.08885770
 C    -.20928246   .39241357   .08885770
 C     .14155069  -.30942141   .19886103
 S    -.05679794   .13718505  -.21273904
 S     .14196872  -.24691598  -.15056521
 S    -.14196872   .24691598   .15056521
 S     .05679794  -.13718505   .21273904
 H    -.17993573   .39573016  -.12742696
 H     .20963642  -.42581263  -.00472662
 H    -.20963642   .42581263   .00472662
 H     .17993573  -.39573016   .12742696
 H    -.19213735   .41801795  -.23192522
 H     .26887627  -.50263053  -.08679134
 H    -.26887627   .50263053   .08679134
 H     .19213735  -.41801795   .23192522
 N     .44526826   .66133915   .52393468
 N     .55473174   .33866085   .47606532
 C     .42119114   .58405508   .47032894
 C     .47676517   .41895078   .44593950
 C     .52323483   .58104922   .55406050
 C     .57880886   .41594492   .52967106
 C     .33838678   .66717774   .43654178
 C     .44779283   .33818087   .38840617
 C     .55220717   .66181913   .61159383
 C     .66161322   .33282226   .56345822
 C     .31132728   .58309706   .38048747
 C     .36590301   .42004511   .35651096
 C     .63409699   .57995489   .64348904
 C     .68867272   .41690294   .61951253
 C     .27533343   .83177315   .45299096
 C     .49254038   .17645565   .35665918
 C     .50745962   .82354435   .64334082
 C     .72466657   .16822685   .54700904
 C     .20243158   .86639187   .41097863
 C     .44608965   .14086534   .30273396
 C     .55391035   .85913466   .69726604
 C     .79756842   .13360813   .58902137
 S     .20922737   .70489469   .34998849
 S     .34658277   .29841543   .28918066
 S     .65341723   .70158457   .71081934
 S     .79077263   .29510531   .65001151
 H     .28488653   .92095016   .49448288
 H     .55611890   .08659711   .37374408
 H     .44388110   .91340289   .62625592
 H     .71511347   .07904984   .50551712
 H     .14492251   .97967606   .41267969
 H     .46390106   .02407165   .26986057
 H     .53609894   .97592835   .73013943
 H     .85507749   .02032394   .58732031
