# TTPc cryst optimized by PBE-D3paw900
data_nolabel
_cell_length_a                  12.57100993
_cell_length_b                   4.79629085
_cell_length_c                  13.60541627
_cell_angle_alpha                90
_cell_angle_beta                 96.6870955
_cell_angle_gamma                90
_cell_formula_units_Z            2
_symmetry_space_group_name_H-M   P21
loop_
_symmetry_equiv_pos_as_xyz
x,y,z
1-x,y+1/2,1-z
loop_
_atom_site_type_symbol
_atom_site_fract_x
_atom_site_fract_y
_atom_site_fract_z
 N     .33895894   .52055803   .17457086
 N     .32883106   .13127066   .32987304
 C     .24780223   .47881318   .21475001
 C     .24263092   .27992720   .29384825
 C     .42519243   .37082870   .21036035
 C     .42005110   .17222314   .28948525
 C     .15236439   .62652533   .17932354
 C     .14224585   .23975554   .33116521
 C     .52415301   .40634990   .16854864
 C     .51431885   .01725339   .32579751
 C     .05384485   .58207327   .21619725
 C     .04846845   .38164018   .29370368
 C     .61442834   .24604790   .20374152
 C     .61012056   .05680270   .28323358
 C    -.02870497   .75627247   .16863790
 C    -.04139180   .29613973   .34134090
 C     .54552979   .59130541   .09101734
 C     .52649510  -.18129283   .40454758
 C     .00784364   .92699397   .09910196
 C    -.01483351   .09563584   .41180894
 C     .64792053   .56664677   .06737938
 C     .62852115  -.28365109   .42161683
 S     .14199978   .88104701   .08879370
 S     .11880459   .00771998   .42329509
 S     .72108639   .31820053   .13857433
 S     .71216905  -.14441329   .34219796
 H    -.11082064   .75800610   .18641990
 H    -.12199363   .37841685   .32380061
 H     .48671428   .73534901   .05482906
 H     .46208088  -.24507753   .44643389
 H    -.03715034  1.08145509   .05305605
 H    -.06710900  -.00803177   .45835437
 H     .68513526   .68023871   .01139095
 H     .66060444  -.42897902   .47868475
